Questionable use of curly braces in "cf c5_ic n001  q={v(cvar)*{c_f_base}*{c_scale}*x}"
    Error: undefined symbol in: "[v](cvar)*(c_f_base)*(c_scale)*x"
Circuit: * /Users/johnlimjsj/Documents/LTspice/FYP/capSense.asc

Limiting rise time of source v:x1:1 to 5e-06
Limiting fall time of source v:x1:1 to 5e-06
Unknown node in .ic card: "vci" -- ignoring
Unknown node in .ic card: "c6_ic" -- ignoring
WARNING: Node NC_01 is floating.

WARNING: Less than two connections to node NC_01.  This node is used by S1.
WARNING: Less than two connections to node VOSC.  This node is used by S4.
Direct Newton iteration failed to find .op point.  (Use ".option noopiter" to skip.)
Starting Gmin stepping
Gmin = 10
Gmin = 1.07374
vernier = 0.5
vernier = 0.25
vernier = 0.125
vernier = 0.0625
Gmin = 1.08884
vernier = 0.03125
vernier = 0.015625
Gmin = 1.03922
vernier = 0.0078125
vernier = 0.00390625
Gmin = 1.02313
vernier = 0.00520833
vernier = 0.00260417
Gmin = 1.01616
vernier = 0.00347222
vernier = 0.00173611
vernier = 0.00231481
Gmin = 1.01205
vernier = 0.00115741
vernier = 0.00154321
vernier = 0.000771604
Gmin = 1.0104
vernier = 0.00102881
Gmin = 1.00812
vernier = 0.000514403
vernier = 0.00068587
Gmin = 1.00704
vernier = 0.000514403
vernier = 0.00068587
vernier = 0.000514402
Gmin = 1.00622
Gmin = 0
Gmin stepping failed

Starting source stepping with srcstepmethod=0
Source Step = 3.0303%
Source Step = 33.3333%
Source Step = 63.6364%
Source Step = 93.9394%
Source stepping succeeded in finding the operating point.

Ignoring empty pin current: Ix(u1:1)
Ignoring empty pin current: Ix(u1:2)
Ignoring empty pin current: Ix(u4:1)
Ignoring empty pin current: Ix(u4:2)
Ignoring empty pin current: Ix(u3:1)
Ignoring empty pin current: Ix(u3:2)
Ignoring empty pin current: Ix(u1:1)
Ignoring empty pin current: Ix(u1:2)
Ignoring empty pin current: Ix(u4:1)
Ignoring empty pin current: Ix(u4:2)
Ignoring empty pin current: Ix(u3:1)
Ignoring empty pin current: Ix(u3:2)
.step cx=1
.step cx=2

Date: Thu Feb 23 16:49:41 2017
Total elapsed time: 1.471 seconds.

tnom = 27
temp = 27
method = modified trap
totiter = 29780
traniter = 23008
tranpoints = 9205
accept = 7823
rejected = 1382
matrix size = 42
fillins = 1
solver = Normal
Matrix Compiler1: 1306 object code size  0.4/0.3/[0.1]
Matrix Compiler2: off

