Circuit: * /Users/johnlimjsj/Documents/LTspice/FYP/CIR_CDC.asc

Unknown node in .ic card: "c3_ic" -- ignoring
Unknown node in .ic card: "c2_ic" -- ignoring
Unknown node in .ic card: "c1_ic" -- ignoring
Unknown node in .ic card: "vx" -- ignoring
WARNING: Less than two connections to node SIG.  This node is used by V1.
WARNING: Less than two connections to node PHI2_.  This node is used by V5.
Direct Newton iteration for .op point succeeded.

Date: Mon Feb 27 20:52:52 2017
Total elapsed time: 0.426 seconds.

tnom = 27
temp = 27
method = modified trap
totiter = 4281
traniter = 4277
tranpoints = 2132
accept = 1931
rejected = 201
matrix size = 39
fillins = 0
solver = Normal
Matrix Compiler1: 1310 object code size  0.4/0.3/[0.1]
Matrix Compiler2: off

