Circuit: * /Users/johnlimjsj/Documents/LTspice/FYP/CIR_CDC.asc

Questionable use of curly braces in "b§1 out 0 v={if(v(+)>v(-),1,0)}"
    Error: undefined symbol in: "if([v](+)>v(-),1,0)"
Questionable use of curly braces in "c1 pos neg  q={v(vpressure)*{{cbase}}*x}"
    Error: undefined symbol in: "[v](vpressure)*((cbase))*x"
Unknown node in .ic card: "x19:c0_ic" -- ignoring
WARNING: Less than two connections to node SIG.  This node is used by V1.
WARNING: Less than two connections to node D0.  This node is used by V4.
WARNING: Less than two connections to node X19:N002.  This node is used by A:X19:2.
WARNING: Less than two connections to node X19:COMP_.  This node is used by V:X19:1.
WARNING: Less than two connections to node X19:P.  This node is used by V:X19:11.
Direct Newton iteration for .op point succeeded.
Ignoring empty pin current: Ix(u1:1)
Ignoring empty pin current: Ix(u1:2)
Ignoring empty pin current: Ix(u1:3)
Ignoring empty pin current: Ix(x19:rst)
Ignoring empty pin current: Ix(csensor:vpressure)
Ignoring empty pin current: Ix(u1:1)
Ignoring empty pin current: Ix(u1:2)
Ignoring empty pin current: Ix(u1:3)
Ignoring empty pin current: Ix(x19:rst)
Ignoring empty pin current: Ix(csensor:vpressure)

Date: Tue Feb 28 17:46:21 2017
Total elapsed time: 1.938 seconds.

tnom = 27
temp = 27
method = modified trap
totiter = 8928
traniter = 8922
tranpoints = 4368
accept = 3659
rejected = 709
matrix size = 136
fillins = 0
solver = Normal
Thread vector: 12.8/9.3[4] 6.1/4.8[4] 2.2/3.4[1] 0.3/4.7[1]  2592/500
Matrix Compiler1: 3928 object code size  2.0/1.0/[0.6]
Matrix Compiler2: off

